agan3
     RDKit          3D

 72 76  0  0  0  0  0  0  0  0999 V2000
   -1.7504    1.9665   -0.2076 C   0  0  0  0  0  0  0  0  0  0  0  0
   -2.4355    3.1707   -0.1588 C   0  0  0  0  0  0  0  0  0  0  0  0
   -3.6547    3.2229    0.5235 C   0  0  0  0  0  0  0  0  0  0  0  0
   -4.1621    2.0809    1.1532 C   0  0  0  0  0  0  0  0  0  0  0  0
   -3.4736    0.8685    1.0947 C   0  0  0  0  0  0  0  0  0  0  0  0
   -2.2628    0.8230    0.4098 C   0  0  0  0  0  0  0  0  0  0  0  0
   -1.3792   -0.3835    0.1748 C   0  0  0  0  0  0  0  0  0  0  0  0
   -0.1772    0.2742   -0.5615 C   0  0  0  0  0  0  0  0  0  0  0  0
   -0.5247    1.6822   -0.8306 N   0  0  0  0  0  0  0  0  0  0  0  0
    0.2261    2.5785   -1.5745 C   0  0  0  0  0  0  0  0  0  0  0  0
    1.5116    2.0788   -2.0988 C   0  0  0  0  0  0  0  0  0  0  0  0
    2.6255    2.0241   -1.2600 C   0  0  0  0  0  0  0  0  0  0  0  0
    3.8225    1.5159   -1.7692 C   0  0  0  0  0  0  0  0  0  0  0  0
    3.9144    1.0882   -3.0989 C   0  0  0  0  0  0  0  0  0  0  0  0
    2.7974    1.1745   -3.9327 C   0  0  0  0  0  0  0  0  0  0  0  0
    1.5926    1.6727   -3.4349 C   0  0  0  0  0  0  0  0  0  0  0  0
    5.2342    1.3962   -0.7041 S   0  0  0  0  0  0  0  0  0  0  0  0
    4.6166    0.6487    0.6663 N   0  0  0  0  0  0  0  0  0  0  0  0
    4.4966   -0.8137    0.8521 C   0  0  0  0  0  0  0  0  0  0  0  0
    5.8682   -1.4103    1.1839 C   0  0  0  0  0  0  0  0  0  0  0  0
    3.5662   -1.0137    2.0630 C   0  0  0  0  0  0  0  0  0  0  0  0
    3.8711   -1.5126   -0.3570 C   0  0  0  0  0  0  0  0  0  0  0  0
    5.5628    2.7446   -0.3001 O   0  0  0  0  0  0  0  0  0  0  0  0
    6.2086    0.5233   -1.3162 O   0  0  0  0  0  0  0  0  0  0  0  0
   -0.0682    3.7364   -1.8503 O   0  0  0  0  0  0  0  0  0  0  0  0
   -0.9398   -1.0392    1.5014 C   0  0  0  0  0  0  0  0  0  0  0  0
   -0.1037   -2.2992    1.2722 C   0  0  0  0  0  0  0  0  0  0  0  0
   -0.8456   -3.2714    0.3866 C   0  0  0  0  0  0  0  0  0  0  0  0
   -1.2772   -2.6865   -0.9381 C   0  0  0  0  0  0  0  0  0  0  0  0
   -2.1003   -1.4142   -0.7243 C   0  0  0  0  0  0  0  0  0  0  0  0
   -0.4253   -4.7231    0.4175 C   0  0  0  0  0  0  0  0  0  0  0  0
   -1.7307   -4.3108    1.0388 C   0  0  0  0  0  0  0  0  0  0  0  0
   -5.4290    2.1521    1.8017 N   0  0  0  0  0  0  0  0  0  0  0  0
   -6.7853    1.7082    0.8889 S   0  0  0  0  0  0  0  0  0  0  0  0
   -7.3086    3.2810    0.2415 C   0  0  0  0  0  0  0  0  0  0  0  0
   -7.7725    1.2827    1.8594 O   0  0  0  0  0  0  0  0  0  0  0  0
   -6.3933    0.8453   -0.2024 O   0  0  0  0  0  0  0  0  0  0  0  0
   -2.0520    4.0667   -0.6353 H   0  0  0  0  0  0  0  0  0  0  0  0
   -4.1964    4.1633    0.5686 H   0  0  0  0  0  0  0  0  0  0  0  0
   -3.8893   -0.0273    1.5446 H   0  0  0  0  0  0  0  0  0  0  0  0
    0.0646   -0.2173   -1.5094 H   0  0  0  0  0  0  0  0  0  0  0  0
    0.7282    0.2762    0.0562 H   0  0  0  0  0  0  0  0  0  0  0  0
    2.5581    2.3709   -0.2321 H   0  0  0  0  0  0  0  0  0  0  0  0
    4.8513    0.6980   -3.4928 H   0  0  0  0  0  0  0  0  0  0  0  0
    2.8677    0.8580   -4.9712 H   0  0  0  0  0  0  0  0  0  0  0  0
    0.7221    1.7479   -4.0829 H   0  0  0  0  0  0  0  0  0  0  0  0
    4.8139    1.2053    1.4999 H   0  0  0  0  0  0  0  0  0  0  0  0
    6.3369   -0.8850    2.0241 H   0  0  0  0  0  0  0  0  0  0  0  0
    6.5583   -1.3504    0.3373 H   0  0  0  0  0  0  0  0  0  0  0  0
    5.7815   -2.4683    1.4565 H   0  0  0  0  0  0  0  0  0  0  0  0
    3.9846   -0.5545    2.9666 H   0  0  0  0  0  0  0  0  0  0  0  0
    3.4044   -2.0769    2.2727 H   0  0  0  0  0  0  0  0  0  0  0  0
    2.5881   -0.5502    1.8895 H   0  0  0  0  0  0  0  0  0  0  0  0
    2.9027   -1.0728   -0.6175 H   0  0  0  0  0  0  0  0  0  0  0  0
    4.5119   -1.4614   -1.2421 H   0  0  0  0  0  0  0  0  0  0  0  0
    3.7022   -2.5758   -0.1492 H   0  0  0  0  0  0  0  0  0  0  0  0
   -0.3713   -0.3295    2.1159 H   0  0  0  0  0  0  0  0  0  0  0  0
   -1.8249   -1.3136    2.0909 H   0  0  0  0  0  0  0  0  0  0  0  0
    0.1380   -2.7516    2.2416 H   0  0  0  0  0  0  0  0  0  0  0  0
    0.8506   -2.0435    0.7987 H   0  0  0  0  0  0  0  0  0  0  0  0
   -1.8742   -3.4064   -1.5113 H   0  0  0  0  0  0  0  0  0  0  0  0
   -0.3876   -2.4709   -1.5410 H   0  0  0  0  0  0  0  0  0  0  0  0
   -2.3476   -0.9736   -1.6988 H   0  0  0  0  0  0  0  0  0  0  0  0
   -3.0573   -1.6967   -0.2647 H   0  0  0  0  0  0  0  0  0  0  0  0
   -0.4636   -5.2981   -0.5017 H   0  0  0  0  0  0  0  0  0  0  0  0
    0.3780   -5.0220    1.0821 H   0  0  0  0  0  0  0  0  0  0  0  0
   -2.6463   -4.6062    0.5374 H   0  0  0  0  0  0  0  0  0  0  0  0
   -1.8055   -4.3307    2.1207 H   0  0  0  0  0  0  0  0  0  0  0  0
   -5.4773    1.6796    2.7065 H   0  0  0  0  0  0  0  0  0  0  0  0
   -7.4668    3.9723    1.0713 H   0  0  0  0  0  0  0  0  0  0  0  0
   -6.5502    3.6565   -0.4468 H   0  0  0  0  0  0  0  0  0  0  0  0
   -8.2475    3.1262   -0.2948 H   0  0  0  0  0  0  0  0  0  0  0  0
  1  2  2  0
  2  3  1  0
  3  4  2  0
  4  5  1  0
  5  6  2  0
  6  7  1  0
  7  8  1  0
  8  9  1  0
  9 10  1  0
 10 11  1  0
 11 12  2  0
 12 13  1  0
 13 14  2  0
 14 15  1  0
 15 16  2  0
 13 17  1  0
 17 18  1  0
 18 19  1  0
 19 20  1  0
 19 21  1  0
 19 22  1  0
 17 23  2  0
 17 24  2  0
 10 25  2  0
  7 26  1  0
 26 27  1  0
 27 28  1  0
 28 29  1  0
 29 30  1  0
 28 31  1  0
 31 32  1  0
  4 33  1  0
 33 34  1  0
 34 35  1  0
 34 36  2  0
 34 37  2  0
  6  1  1  0
 30  7  1  0
  9  1  1  0
 16 11  1  0
 32 28  1  0
  2 38  1  0
  3 39  1  0
  5 40  1  0
  8 41  1  0
  8 42  1  0
 12 43  1  0
 14 44  1  0
 15 45  1  0
 16 46  1  0
 18 47  1  0
 20 48  1  0
 20 49  1  0
 20 50  1  0
 21 51  1  0
 21 52  1  0
 21 53  1  0
 22 54  1  0
 22 55  1  0
 22 56  1  0
 26 57  1  0
 26 58  1  0
 27 59  1  0
 27 60  1  0
 29 61  1  0
 29 62  1  0
 30 63  1  0
 30 64  1  0
 31 65  1  0
 31 66  1  0
 32 67  1  0
 32 68  1  0
 33 69  1  0
 35 70  1  0
 35 71  1  0
 35 72  1  0
M  END
$$$$
