agan2
     RDKit          3D

 72 76  0  0  0  0  0  0  0  0999 V2000
   -2.0154    0.5366    0.7180 C   0  0  0  0  0  0  0  0  0  0  0  0
   -0.9356    1.4547    0.6843 C   0  0  0  0  0  0  0  0  0  0  0  0
   -1.2029    2.8354    0.7649 C   0  0  0  0  0  0  0  0  0  0  0  0
   -2.5093    3.3154    0.8717 C   0  0  0  0  0  0  0  0  0  0  0  0
   -3.5742    2.4223    0.8877 C   0  0  0  0  0  0  0  0  0  0  0  0
   -3.3264    1.0504    0.8228 C   0  0  0  0  0  0  0  0  0  0  0  0
   -4.8963    2.9418    0.9844 N   0  0  0  0  0  0  0  0  0  0  0  0
   -6.0595    2.5644   -0.1691 S   0  0  0  0  0  0  0  0  0  0  0  0
   -5.3633    3.1896   -1.6881 C   0  0  0  0  0  0  0  0  0  0  0  0
   -5.2916    4.6996   -1.6991 C   0  0  0  0  0  0  0  0  0  0  0  0
   -4.6319    5.1244   -2.8877 O   0  0  0  0  0  0  0  0  0  0  0  0
   -7.2114    3.3772    0.1623 O   0  0  0  0  0  0  0  0  0  0  0  0
   -6.1780    1.1266   -0.2780 O   0  0  0  0  0  0  0  0  0  0  0  0
    0.5186    1.0660    0.5898 C   0  0  0  0  0  0  0  0  0  0  0  0
    0.7902   -0.2754    0.7486 N   0  0  0  0  0  0  0  0  0  0  0  0
    2.0323   -0.9369    0.7267 C   0  0  0  0  0  0  0  0  0  0  0  0
    2.0135   -2.3222    0.9122 C   0  0  0  0  0  0  0  0  0  0  0  0
    3.2006   -3.0496    0.9051 C   0  0  0  0  0  0  0  0  0  0  0  0
    4.4151   -2.3923    0.7092 C   0  0  0  0  0  0  0  0  0  0  0  0
    4.4726   -1.0030    0.5139 C   0  0  0  0  0  0  0  0  0  0  0  0
    3.2596   -0.2920    0.5321 C   0  0  0  0  0  0  0  0  0  0  0  0
    5.7334   -0.3960    0.3272 N   0  0  0  0  0  0  0  0  0  0  0  0
    6.3494   -0.7738   -0.9589 C   0  0  0  0  0  0  0  0  0  0  0  0
    7.8257   -0.4143   -0.9267 C   0  0  0  0  0  0  0  0  0  0  0  0
    7.9909    1.0470   -0.5736 C   0  0  0  0  0  0  0  0  0  0  0  0
    7.2864    1.4421    0.7050 C   0  0  0  0  0  0  0  0  0  0  0  0
    5.8222    1.0441    0.6222 C   0  0  0  0  0  0  0  0  0  0  0  0
    9.3153    1.3324   -0.4621 F   0  0  0  0  0  0  0  0  0  0  0  0
    7.5295    1.8122   -1.5991 F   0  0  0  0  0  0  0  0  0  0  0  0
    1.3496    1.9490    0.3973 O   0  0  0  0  0  0  0  0  0  0  0  0
   -1.8033   -0.8652    0.5997 N   0  0  0  0  0  0  0  0  0  0  0  0
   -2.0212   -1.3019   -0.8073 C   0  0  0  0  0  0  0  0  0  0  0  0
   -1.9315   -2.8279   -0.9060 C   0  0  0  0  0  0  0  0  0  0  0  0
   -2.9958   -3.4941   -0.0512 C   0  0  0  0  0  0  0  0  0  0  0  0
   -3.5591   -2.6143    1.0505 C   0  0  0  0  0  0  0  0  0  0  0  0
   -2.4798   -1.6964    1.6336 C   0  0  0  0  0  0  0  0  0  0  0  0
   -2.8600   -4.9824    0.2036 C   0  0  0  0  0  0  0  0  0  0  0  0
   -3.9391   -4.4818   -0.7083 C   0  0  0  0  0  0  0  0  0  0  0  0
   -0.3810    3.5507    0.7492 H   0  0  0  0  0  0  0  0  0  0  0  0
   -2.6713    4.3878    0.9332 H   0  0  0  0  0  0  0  0  0  0  0  0
   -4.1650    0.3607    0.8547 H   0  0  0  0  0  0  0  0  0  0  0  0
   -5.0172    3.8668    1.3960 H   0  0  0  0  0  0  0  0  0  0  0  0
   -6.0088    2.8397   -2.5017 H   0  0  0  0  0  0  0  0  0  0  0  0
   -4.3853    2.7264   -1.8486 H   0  0  0  0  0  0  0  0  0  0  0  0
   -6.2929    5.1417   -1.6825 H   0  0  0  0  0  0  0  0  0  0  0  0
   -4.7296    5.0850   -0.8435 H   0  0  0  0  0  0  0  0  0  0  0  0
   -4.6771    6.0968   -2.9167 H   0  0  0  0  0  0  0  0  0  0  0  0
   -0.0384   -0.8576    0.8742 H   0  0  0  0  0  0  0  0  0  0  0  0
    1.0763   -2.8483    1.0711 H   0  0  0  0  0  0  0  0  0  0  0  0
    3.1844   -4.1245    1.0607 H   0  0  0  0  0  0  0  0  0  0  0  0
    5.3355   -2.9709    0.7333 H   0  0  0  0  0  0  0  0  0  0  0  0
    3.2731    0.7789    0.3740 H   0  0  0  0  0  0  0  0  0  0  0  0
    5.8453   -0.2554   -1.7853 H   0  0  0  0  0  0  0  0  0  0  0  0
    6.2689   -1.8500   -1.1527 H   0  0  0  0  0  0  0  0  0  0  0  0
    8.3536   -1.0335   -0.1913 H   0  0  0  0  0  0  0  0  0  0  0  0
    8.2793   -0.6181   -1.9028 H   0  0  0  0  0  0  0  0  0  0  0  0
    7.7697    0.9540    1.5600 H   0  0  0  0  0  0  0  0  0  0  0  0
    7.3701    2.5230    0.8619 H   0  0  0  0  0  0  0  0  0  0  0  0
    5.3520    1.2708    1.5871 H   0  0  0  0  0  0  0  0  0  0  0  0
    5.3188    1.6348   -0.1540 H   0  0  0  0  0  0  0  0  0  0  0  0
   -3.0006   -0.9690   -1.1765 H   0  0  0  0  0  0  0  0  0  0  0  0
   -1.2525   -0.8573   -1.4511 H   0  0  0  0  0  0  0  0  0  0  0  0
   -0.9420   -3.1572   -0.5658 H   0  0  0  0  0  0  0  0  0  0  0  0
   -2.0314   -3.1285   -1.9552 H   0  0  0  0  0  0  0  0  0  0  0  0
   -3.9867   -3.2236    1.8555 H   0  0  0  0  0  0  0  0  0  0  0  0
   -4.3792   -2.0140    0.6385 H   0  0  0  0  0  0  0  0  0  0  0  0
   -1.7020   -2.3198    2.0929 H   0  0  0  0  0  0  0  0  0  0  0  0
   -2.8974   -1.0898    2.4466 H   0  0  0  0  0  0  0  0  0  0  0  0
   -2.0279   -5.5147   -0.2453 H   0  0  0  0  0  0  0  0  0  0  0  0
   -3.1573   -5.3811    1.1675 H   0  0  0  0  0  0  0  0  0  0  0  0
   -3.8382   -4.6817   -1.7696 H   0  0  0  0  0  0  0  0  0  0  0  0
   -4.9644   -4.5338   -0.3566 H   0  0  0  0  0  0  0  0  0  0  0  0
  1  2  1  0
  2  3  2  0
  3  4  1  0
  4  5  2  0
  5  6  1  0
  5  7  1  0
  7  8  1  0
  8  9  1  0
  9 10  1  0
 10 11  1  0
  8 12  2  0
  8 13  2  0
  2 14  1  0
 14 15  1  0
 15 16  1  0
 16 17  2  0
 17 18  1  0
 18 19  2  0
 19 20  1  0
 20 21  2  0
 20 22  1  0
 22 23  1  0
 23 24  1  0
 24 25  1  0
 25 26  1  0
 26 27  1  0
 25 28  1  0
 25 29  1  0
 14 30  2  0
  1 31  1  0
 31 32  1  0
 32 33  1  0
 33 34  1  0
 34 35  1  0
 35 36  1  0
 34 37  1  0
 37 38  1  0
  6  1  2  0
 21 16  1  0
 27 22  1  0
 36 31  1  0
 38 34  1  0
  3 39  1  0
  4 40  1  0
  6 41  1  0
  7 42  1  0
  9 43  1  0
  9 44  1  0
 10 45  1  0
 10 46  1  0
 11 47  1  0
 15 48  1  0
 17 49  1  0
 18 50  1  0
 19 51  1  0
 21 52  1  0
 23 53  1  0
 23 54  1  0
 24 55  1  0
 24 56  1  0
 26 57  1  0
 26 58  1  0
 27 59  1  0
 27 60  1  0
 32 61  1  0
 32 62  1  0
 33 63  1  0
 33 64  1  0
 35 65  1  0
 35 66  1  0
 36 67  1  0
 36 68  1  0
 37 69  1  0
 37 70  1  0
 38 71  1  0
 38 72  1  0
M  END
$$$$
