agan3
 OpenBabel01042510183D

 39 43  0  0  0  0  0  0  0  0999 V2000
   -3.8470   -0.2630  -11.1170 C   0  0  0  0  0  0  0  0  0  0  0  0
   -3.4120    0.1470   -9.8650 C   0  0  0  0  0  3  0  0  0  0  0  0
   -4.3570    0.3240   -8.8500 C   0  0  0  0  0  3  0  0  0  0  0  0
   -5.7120    0.0790   -9.0950 C   0  0  0  0  0  0  0  0  0  0  0  0
   -6.1470   -0.3250  -10.3570 C   0  0  0  0  0  3  0  0  0  0  0  0
   -5.2020   -0.4950  -11.3650 C   0  0  0  0  0  0  0  0  0  0  0  0
   -5.4490   -0.8730  -12.8110 C   0  0  0  0  0  0  0  0  0  0  0  0
   -3.9890   -0.9710  -13.3390 C   0  0  0  0  0  2  0  0  0  0  0  0
   -3.0860   -0.4990  -12.2720 N   0  0  0  0  0  0  0  0  0  0  0  0
   -1.7170   -0.3150  -12.3860 C   0  0  0  0  0  0  0  0  0  0  0  0
   -0.9580    0.1210  -11.5280 O   0  0  0  0  0  0  0  0  0  0  0  0
   -6.1860   -2.2220  -12.9320 C   0  0  0  0  0  2  0  0  0  0  0  0
   -6.5010   -2.5780  -14.3850 C   0  0  0  0  0  2  0  0  0  0  0  0
   -7.2680   -1.4600  -15.0480 C   0  0  0  0  0  0  0  0  0  0  0  0
   -6.5770   -0.1180  -14.9810 C   0  0  0  0  0  2  0  0  0  0  0  0
   -6.2390    0.2420  -13.5320 C   0  0  0  0  0  2  0  0  0  0  0  0
   -8.0640   -1.7850  -16.2920 C   0  0  0  0  0  2  0  0  0  0  0  0
   -8.7810   -1.4950  -15.0020 C   0  0  0  0  0  2  0  0  0  0  0  0
   -1.1130   -0.6750  -13.6840 C   0  0  0  0  0  0  0  0  0  0  0  0
   -0.4090    0.2880  -14.4090 C   0  0  0  0  0  3  0  0  0  0  0  0
    0.1810   -0.0850  -15.6170 C   0  0  0  0  0  0  0  0  0  0  0  0
    0.0550   -1.3910  -16.1070 C   0  0  0  0  0  3  0  0  0  0  0  0
   -0.6760   -2.3340  -15.3820 C   0  0  0  0  0  3  0  0  0  0  0  0
   -1.2640   -1.9780  -14.1690 C   0  0  0  0  0  3  0  0  0  0  0  0
    1.1190    1.1120  -16.5280 S   0  0  0  0  0  0  0  0  0  0  0  0
    0.2030    2.1750  -16.8780 O   0  0  0  0  0  0  0  0  0  0  0  0
    1.9100    0.4280  -17.5250 O   0  0  0  0  0  0  0  0  0  0  0  0
    2.1440    1.7590  -15.3680 N   0  0  0  0  0  0  0  0  0  0  0  0
    2.2120    2.7730  -15.4710 H   0  0  0  0  0  0  0  0  0  0  0  0
    3.3180    1.0650  -14.7940 C   0  0  0  0  0  0  0  0  0  0  0  0
    4.4320    0.9770  -15.8410 C   0  0  0  0  0  1  0  0  0  0  0  0
    3.8050    1.9470  -13.6280 C   0  0  0  0  0  1  0  0  0  0  0  0
    2.9730   -0.3190  -14.2390 C   0  0  0  0  0  1  0  0  0  0  0  0
   -6.6580    0.3120   -8.0550 N   0  0  0  0  0  0  0  0  0  0  0  0
   -6.4550    1.1160   -7.4590 H   0  0  0  0  0  0  0  0  0  0  0  0
   -7.0530   -1.0070   -7.0670 S   0  0  0  0  0  0  0  0  0  0  0  0
   -8.8200   -1.0860   -7.2660 C   0  0  0  0  0  1  0  0  0  0  0  0
   -6.7840   -0.5610   -5.7160 O   0  0  0  0  0  0  0  0  0  0  0  0
   -6.4560   -2.2170   -7.5850 O   0  0  0  0  0  0  0  0  0  0  0  0
  1  2  1  0  0  0  0
  2  3  2  0  0  0  0
  4  3  1  0  0  0  0
  4 34  1  0  0  0  0
  5  4  2  0  0  0  0
  6  1  2  0  0  0  0
  6  5  1  0  0  0  0
  7  6  1  0  0  0  0
  8  7  1  0  0  0  0
  8  9  1  0  0  0  0
  9  1  1  0  0  0  0
 10  9  1  0  0  0  0
 10 11  2  0  0  0  0
 12  7  1  0  0  0  0
 13 12  1  0  0  0  0
 14 18  1  0  0  0  0
 14 15  1  0  0  0  0
 14 13  1  0  0  0  0
 15 16  1  0  0  0  0
 16  7  1  0  0  0  0
 17 14  1  0  0  0  0
 17 18  1  0  0  0  0
 19 10  1  0  0  0  0
 20 19  2  0  0  0  0
 21 20  1  0  0  0  0
 22 21  2  0  0  0  0
 22 23  1  0  0  0  0
 23 24  2  0  0  0  0
 24 19  1  0  0  0  0
 25 21  1  0  0  0  0
 25 28  1  0  0  0  0
 26 25  2  0  0  0  0
 27 25  2  0  0  0  0
 28 30  1  0  0  0  0
 29 28  1  0  0  0  0
 30 33  1  0  0  0  0
 30 32  1  0  0  0  0
 31 30  1  0  0  0  0
 34 35  1  0  0  0  0
 34 36  1  0  0  0  0
 36 38  2  0  0  0  0
 37 36  1  0  0  0  0
 39 36  2  0  0  0  0
M  END
$$$$
