agan10
 OpenBabel01042510183D

 40 45  0  0  0  0  0  0  0  0999 V2000
   -1.1540   -0.7680  -13.0880 C   0  0  0  0  0  0  0  0  0  0  0  0
   -0.0320   -0.2030  -12.4420 C   0  0  0  0  0  3  0  0  0  0  0  0
    1.2010   -0.0930  -13.0870 C   0  0  0  0  0  3  0  0  0  0  0  0
    1.3350   -0.5620  -14.3860 C   0  0  0  0  0  0  0  0  0  0  0  0
    0.2380   -1.1230  -15.0400 C   0  0  0  0  0  3  0  0  0  0  0  0
   -1.0220   -1.2420  -14.4150 C   0  0  0  0  0  0  0  0  0  0  0  0
   -2.3940   -0.8710  -12.3120 C   0  0  0  0  0  0  0  0  0  0  0  0
   -3.2280   -1.8830  -12.3540 N   0  0  0  0  0  0  0  0  0  0  0  0
   -4.3130   -1.6720  -11.5050 C   0  0  0  0  0  0  0  0  0  0  0  0
   -4.2600   -0.4640  -10.8020 C   0  0  0  0  0  0  0  0  0  0  0  0
   -2.8210    0.3870  -11.2250 S   0  0  0  0  0  0  0  0  0  0  0  0
   -5.2640   -0.0660   -9.9060 C   0  0  0  0  0  3  0  0  0  0  0  0
   -6.3510   -0.9140   -9.7210 C   0  0  0  0  0  3  0  0  0  0  0  0
   -6.4310   -2.1190  -10.4120 C   0  0  0  0  0  3  0  0  0  0  0  0
   -5.4330   -2.5430  -11.3220 C   0  0  0  0  0  0  0  0  0  0  0  0
   -5.6470   -3.8060  -11.9610 N   0  0  0  0  0  0  0  0  0  0  0  0
   -5.6280   -3.7650  -13.4330 C   0  0  0  0  0  2  0  0  0  0  0  0
   -5.5870   -5.1920  -13.9560 C   0  0  0  0  0  2  0  0  0  0  0  0
   -6.7750   -5.9530  -13.4070 C   0  0  0  0  0  0  0  0  0  0  0  0
   -6.8730   -5.9110  -11.8970 C   0  0  0  0  0  2  0  0  0  0  0  0
   -6.8470   -4.4690  -11.4180 C   0  0  0  0  0  2  0  0  0  0  0  0
   -7.9210   -5.4530  -13.9430 F   0  0  0  0  0  0  0  0  0  0  0  0
   -6.7060   -7.2480  -13.8140 F   0  0  0  0  0  0  0  0  0  0  0  0
   -2.0210   -1.8380  -15.2060 N   0  0  0  0  0  0  0  0  0  0  0  0
   -1.6830   -3.1000  -15.8840 C   0  0  0  0  0  2  0  0  0  0  0  0
   -2.9790   -3.7870  -16.3380 C   0  0  0  0  0  2  0  0  0  0  0  0
   -3.8030   -2.8510  -17.2050 C   0  0  0  0  0  0  0  0  0  0  0  0
   -4.0450   -1.5000  -16.5590 C   0  0  0  0  0  2  0  0  0  0  0  0
   -2.7270   -0.8760  -16.0760 C   0  0  0  0  0  2  0  0  0  0  0  0
   -3.6550   -2.9230  -18.7100 C   0  0  0  0  0  2  0  0  0  0  0  0
   -4.9020   -3.4480  -18.0560 C   0  0  0  0  0  2  0  0  0  0  0  0
    2.5770   -0.4310  -15.0780 N   0  0  0  0  0  0  0  0  0  0  0  0
    2.7130   -1.1050  -15.8360 H   0  0  0  0  0  0  0  0  0  0  0  0
    2.9930    1.1110  -15.6430 S   0  0  0  0  0  0  0  0  0  0  0  0
    1.8320    1.5790  -16.3710 O   0  0  0  0  0  0  0  0  0  0  0  0
    3.5860    1.8970  -14.5850 O   0  0  0  0  0  0  0  0  0  0  0  0
    4.2500    0.7060  -16.8340 C   0  0  0  0  0  2  0  0  0  0  0  0
    3.6130    0.3640  -18.1650 C   0  0  0  0  0  2  0  0  0  0  0  0
    4.6270   -0.0680  -19.0690 O   0  0  0  0  0  0  0  0  0  0  0  0
    5.2990   -0.5350  -18.5420 H   0  0  0  0  0  0  0  0  0  0  0  0
  1  2  1  0  0  0  0
  1  7  1  0  0  0  0
  3  2  2  0  0  0  0
  4  3  1  0  0  0  0
  5  6  1  0  0  0  0
  5  4  2  0  0  0  0
  6  1  2  0  0  0  0
  7 11  1  0  0  0  0
  8  7  2  0  0  0  0
  8  9  1  0  0  0  0
  9 15  2  0  0  0  0
  9 10  1  0  0  0  0
 10 12  2  0  0  0  0
 11 10  1  0  0  0  0
 12 13  1  0  0  0  0
 14 13  2  0  0  0  0
 15 14  1  0  0  0  0
 16 21  1  0  0  0  0
 16 15  1  0  0  0  0
 17 16  1  0  0  0  0
 18 17  1  0  0  0  0
 18 19  1  0  0  0  0
 19 20  1  0  0  0  0
 20 21  1  0  0  0  0
 22 19  1  0  0  0  0
 23 19  1  0  0  0  0
 24  6  1  0  0  0  0
 25 24  1  0  0  0  0
 26 25  1  0  0  0  0
 27 28  1  0  0  0  0
 27 26  1  0  0  0  0
 28 29  1  0  0  0  0
 29 24  1  0  0  0  0
 30 31  1  0  0  0  0
 30 27  1  0  0  0  0
 31 27  1  0  0  0  0
 32  4  1  0  0  0  0
 33 32  1  0  0  0  0
 34 32  1  0  0  0  0
 34 36  2  0  0  0  0
 35 34  2  0  0  0  0
 37 34  1  0  0  0  0
 38 37  1  0  0  0  0
 39 40  1  0  0  0  0
 39 38  1  0  0  0  0
M  END
$$$$
