agan6
 OpenBabel01042510183D

 40 45  0  0  0  0  0  0  0  0999 V2000
   -1.3060   -0.2160  -12.8800 C   0  0  0  0  0  0  0  0  0  0  0  0
   -0.0570   -0.7820  -12.5500 C   0  0  0  0  0  3  0  0  0  0  0  0
    0.9460   -0.9240  -13.5070 C   0  0  0  0  0  3  0  0  0  0  0  0
    0.7110   -0.4990  -14.8080 C   0  0  0  0  0  0  0  0  0  0  0  0
   -0.5290    0.0350  -15.1620 C   0  0  0  0  0  3  0  0  0  0  0  0
   -1.5620    0.1840  -14.2170 C   0  0  0  0  0  0  0  0  0  0  0  0
   -2.2880   -0.0780  -11.7920 C   0  0  0  0  0  0  0  0  0  0  0  0
   -3.7070   -1.0400  -11.7650 S   0  0  0  0  0  0  0  0  0  0  0  0
   -4.2350   -0.2680  -10.3100 C   0  0  0  0  0  0  0  0  0  0  0  0
   -3.2920    0.7150   -9.9840 C   0  0  0  0  0  0  0  0  0  0  0  0
   -2.2100    0.8270  -10.8410 N   0  0  0  0  0  0  0  0  0  0  0  0
   -3.4920    1.5120   -8.8400 C   0  0  0  0  0  3  0  0  0  0  0  0
   -4.6170    1.3150   -8.0430 C   0  0  0  0  0  3  0  0  0  0  0  0
   -5.5400    0.3320   -8.3790 C   0  0  0  0  0  3  0  0  0  0  0  0
   -5.3900   -0.4940   -9.5140 C   0  0  0  0  0  0  0  0  0  0  0  0
   -6.4120   -1.4550   -9.7250 N   0  0  0  0  0  0  0  0  0  0  0  0
   -7.4880   -0.9690  -10.6020 C   0  0  0  0  0  2  0  0  0  0  0  0
   -8.3380   -2.1590  -11.0190 C   0  0  0  0  0  2  0  0  0  0  0  0
   -8.8300   -2.8870   -9.7860 C   0  0  0  0  0  0  0  0  0  0  0  0
   -7.7230   -3.2900   -8.8330 C   0  0  0  0  0  2  0  0  0  0  0  0
   -6.8880   -2.0700   -8.4780 C   0  0  0  0  0  2  0  0  0  0  0  0
   -9.7240   -2.1010   -9.1270 F   0  0  0  0  0  0  0  0  0  0  0  0
   -9.5180   -3.9960  -10.1650 F   0  0  0  0  0  0  0  0  0  0  0  0
   -2.8340    0.6510  -14.6080 N   0  0  0  0  0  0  0  0  0  0  0  0
   -3.4170   -0.1770  -15.6910 C   0  0  0  0  0  2  0  0  0  0  0  0
   -4.6990    0.4640  -16.2340 C   0  0  0  0  0  2  0  0  0  0  0  0
   -4.4170    1.8430  -16.8070 C   0  0  0  0  0  0  0  0  0  0  0  0
   -3.2420    2.5600  -16.1630 C   0  0  0  0  0  2  0  0  0  0  0  0
   -3.0450    2.1080  -14.7120 C   0  0  0  0  0  2  0  0  0  0  0  0
   -4.6540    2.0780  -18.2850 C   0  0  0  0  0  2  0  0  0  0  0  0
   -5.6010    2.6620  -17.2800 C   0  0  0  0  0  2  0  0  0  0  0  0
    1.7100   -0.6820  -15.8130 N   0  0  0  0  0  0  0  0  0  0  0  0
    1.3940   -1.2040  -16.6330 H   0  0  0  0  0  0  0  0  0  0  0  0
    2.5260    0.7040  -16.3470 S   0  0  0  0  0  0  0  0  0  0  0  0
    3.0910    1.4000  -15.2140 O   0  0  0  0  0  0  0  0  0  0  0  0
    1.5930    1.3700  -17.2330 O   0  0  0  0  0  0  0  0  0  0  0  0
    3.8440    0.0350  -17.3420 C   0  0  0  0  0  2  0  0  0  0  0  0
    3.4960    0.0290  -18.8140 C   0  0  0  0  0  2  0  0  0  0  0  0
    3.5470    1.3660  -19.3080 O   0  0  0  0  0  0  0  0  0  0  0  0
    2.9290    1.8930  -18.7710 H   0  0  0  0  0  0  0  0  0  0  0  0
  1  2  1  0  0  0  0
  1  7  1  0  0  0  0
  3  2  2  0  0  0  0
  4  3  1  0  0  0  0
  5  4  2  0  0  0  0
  5  6  1  0  0  0  0
  6  1  2  0  0  0  0
  7  8  1  0  0  0  0
  7 11  2  0  0  0  0
  8  9  1  0  0  0  0
  9 10  2  0  0  0  0
  9 15  1  0  0  0  0
 10 12  1  0  0  0  0
 11 10  1  0  0  0  0
 12 13  2  0  0  0  0
 14 13  1  0  0  0  0
 15 14  2  0  0  0  0
 16 15  1  0  0  0  0
 16 21  1  0  0  0  0
 17 16  1  0  0  0  0
 18 17  1  0  0  0  0
 18 19  1  0  0  0  0
 19 22  1  0  0  0  0
 19 20  1  0  0  0  0
 20 21  1  0  0  0  0
 23 19  1  0  0  0  0
 24  6  1  0  0  0  0
 25 24  1  0  0  0  0
 26 25  1  0  0  0  0
 27 26  1  0  0  0  0
 27 28  1  0  0  0  0
 28 29  1  0  0  0  0
 29 24  1  0  0  0  0
 30 31  1  0  0  0  0
 30 27  1  0  0  0  0
 31 27  1  0  0  0  0
 32  4  1  0  0  0  0
 33 32  1  0  0  0  0
 34 32  1  0  0  0  0
 34 35  2  0  0  0  0
 36 34  2  0  0  0  0
 37 34  1  0  0  0  0
 38 37  1  0  0  0  0
 39 38  1  0  0  0  0
 39 40  1  0  0  0  0
M  END
$$$$
