agan4
     RDKit          3D

 74 77  0  0  0  0  0  0  0  0999 V2000
   -1.8273    0.0702   -0.0178 C   0  0  0  0  0  0  0  0  0  0  0  0
   -0.4638    0.0267   -0.3697 C   0  0  0  0  0  0  0  0  0  0  0  0
    0.1511   -1.1217   -0.8042 N   0  0  0  0  0  0  0  0  0  0  0  0
   -0.6465   -2.2118   -0.8609 C   0  0  0  0  0  0  0  0  0  0  0  0
   -2.0005   -2.2116   -0.5250 C   0  0  0  0  0  0  0  0  0  0  0  0
   -2.5719   -1.0725   -0.0946 N   0  0  0  0  0  0  0  0  0  0  0  0
   -2.7216   -3.4087   -0.6099 N   0  0  0  0  0  0  0  0  0  0  0  0
   -4.1622   -3.4754   -0.2421 C   0  0  0  0  0  0  0  0  0  0  0  0
   -4.5794   -4.9659   -0.4505 C   0  0  0  0  0  0  0  0  0  0  0  0
   -3.7213   -5.8449    0.2800 O   0  0  0  0  0  0  0  0  0  0  0  0
   -4.3812   -3.1244    1.2392 C   0  0  0  0  0  0  0  0  0  0  0  0
   -5.0332   -2.6112   -1.1630 C   0  0  0  0  0  0  0  0  0  0  0  0
    0.4791    1.2077   -0.2761 C   0  0  0  0  0  0  0  0  0  0  0  0
    1.7669    0.8682   -0.6460 N   0  0  0  0  0  0  0  0  0  0  0  0
    2.9081    1.6616   -0.7035 C   0  0  0  0  0  0  0  0  0  0  0  0
    2.9325    3.0145   -0.3778 C   0  0  0  0  0  0  0  0  0  0  0  0
    4.1343    3.7243   -0.4677 C   0  0  0  0  0  0  0  0  0  0  0  0
    5.2845    3.0720   -0.8834 C   0  0  0  0  0  0  0  0  0  0  0  0
    5.1563    1.7319   -1.1953 C   0  0  0  0  0  0  0  0  0  0  0  0
    4.0097    0.9961   -1.1042 N   0  0  0  0  0  0  0  0  0  0  0  0
    6.5885    0.7692   -1.6726 S   0  0  0  0  0  0  0  0  0  0  0  0
    6.2210   -0.7712   -1.0440 N   0  0  0  0  0  0  0  0  0  0  0  0
    6.5649   -1.1658    0.3538 C   0  0  0  0  0  0  0  0  0  0  0  0
    5.8301   -2.4962    0.6150 C   0  0  0  0  0  0  0  0  0  0  0  0
    6.1011   -0.1466    1.3961 C   0  0  0  0  0  0  0  0  0  0  0  0
    8.0718   -1.4263    0.4648 C   0  0  0  0  0  0  0  0  0  0  0  0
    7.7441    1.3105   -0.9915 O   0  0  0  0  0  0  0  0  0  0  0  0
    6.5393    0.6585   -3.1151 O   0  0  0  0  0  0  0  0  0  0  0  0
    0.1299    2.3248    0.0788 O   0  0  0  0  0  0  0  0  0  0  0  0
   -2.4827    1.2404    0.4064 N   0  0  0  0  0  0  0  0  0  0  0  0
   -2.8217    2.1101   -0.7404 C   0  0  0  0  0  0  0  0  0  0  0  0
   -3.3155    3.4705   -0.2293 C   0  0  0  0  0  0  0  0  0  0  0  0
   -4.4681    3.2928    0.7404 C   0  0  0  0  0  0  0  0  0  0  0  0
   -4.1540    2.3153    1.8565 C   0  0  0  0  0  0  0  0  0  0  0  0
   -3.6415    0.9863    1.2838 C   0  0  0  0  0  0  0  0  0  0  0  0
   -5.8864    3.3802    0.2188 C   0  0  0  0  0  0  0  0  0  0  0  0
   -5.3283    4.4944    1.0601 C   0  0  0  0  0  0  0  0  0  0  0  0
   -0.1565   -3.1245   -1.1861 H   0  0  0  0  0  0  0  0  0  0  0  0
   -2.5666   -3.8097   -1.5347 H   0  0  0  0  0  0  0  0  0  0  0  0
   -4.5028   -5.2459   -1.5074 H   0  0  0  0  0  0  0  0  0  0  0  0
   -5.6101   -5.1460   -0.1273 H   0  0  0  0  0  0  0  0  0  0  0  0
   -2.8610   -5.3841    0.3375 H   0  0  0  0  0  0  0  0  0  0  0  0
   -4.2582   -2.0570    1.4387 H   0  0  0  0  0  0  0  0  0  0  0  0
   -5.3977   -3.3855    1.5556 H   0  0  0  0  0  0  0  0  0  0  0  0
   -3.6794   -3.6602    1.8881 H   0  0  0  0  0  0  0  0  0  0  0  0
   -4.8664   -1.5406   -1.0144 H   0  0  0  0  0  0  0  0  0  0  0  0
   -6.0979   -2.7965   -0.9802 H   0  0  0  0  0  0  0  0  0  0  0  0
   -4.8309   -2.8299   -2.2178 H   0  0  0  0  0  0  0  0  0  0  0  0
    1.9059   -0.0986   -0.9241 H   0  0  0  0  0  0  0  0  0  0  0  0
    2.0431    3.5421   -0.0516 H   0  0  0  0  0  0  0  0  0  0  0  0
    4.1611    4.7801   -0.2097 H   0  0  0  0  0  0  0  0  0  0  0  0
    6.2364    3.5861   -0.9568 H   0  0  0  0  0  0  0  0  0  0  0  0
    5.2245   -0.9181   -1.2425 H   0  0  0  0  0  0  0  0  0  0  0  0
    6.1223   -3.2604   -0.1149 H   0  0  0  0  0  0  0  0  0  0  0  0
    6.0506   -2.8850    1.6155 H   0  0  0  0  0  0  0  0  0  0  0  0
    4.7436   -2.3708    0.5367 H   0  0  0  0  0  0  0  0  0  0  0  0
    6.6145    0.8140    1.2971 H   0  0  0  0  0  0  0  0  0  0  0  0
    6.3016   -0.5095    2.4111 H   0  0  0  0  0  0  0  0  0  0  0  0
    5.0244    0.0388    1.3239 H   0  0  0  0  0  0  0  0  0  0  0  0
    8.4154   -2.1073   -0.3224 H   0  0  0  0  0  0  0  0  0  0  0  0
    8.6600   -0.5085    0.3819 H   0  0  0  0  0  0  0  0  0  0  0  0
    8.3224   -1.8784    1.4314 H   0  0  0  0  0  0  0  0  0  0  0  0
   -3.6064    1.6372   -1.3469 H   0  0  0  0  0  0  0  0  0  0  0  0
   -1.9609    2.2769   -1.3977 H   0  0  0  0  0  0  0  0  0  0  0  0
   -3.6072    4.0960   -1.0812 H   0  0  0  0  0  0  0  0  0  0  0  0
   -2.4981    3.9885    0.2879 H   0  0  0  0  0  0  0  0  0  0  0  0
   -3.3870    2.7576    2.5046 H   0  0  0  0  0  0  0  0  0  0  0  0
   -5.0359    2.1278    2.4802 H   0  0  0  0  0  0  0  0  0  0  0  0
   -3.3533    0.3376    2.1203 H   0  0  0  0  0  0  0  0  0  0  0  0
   -4.4526    0.4965    0.7286 H   0  0  0  0  0  0  0  0  0  0  0  0
   -6.0445    3.5754   -0.8362 H   0  0  0  0  0  0  0  0  0  0  0  0
   -6.6461    2.7454    0.6614 H   0  0  0  0  0  0  0  0  0  0  0  0
   -5.1047    5.4371    0.5723 H   0  0  0  0  0  0  0  0  0  0  0  0
   -5.7073    4.6077    2.0701 H   0  0  0  0  0  0  0  0  0  0  0  0
  1  2  1  0
  2  3  2  0
  3  4  1  0
  4  5  2  0
  5  6  1  0
  5  7  1  0
  7  8  1  0
  8  9  1  0
  9 10  1  0
  8 11  1  0
  8 12  1  0
  2 13  1  0
 13 14  1  0
 14 15  1  0
 15 16  2  0
 16 17  1  0
 17 18  2  0
 18 19  1  0
 19 20  2  0
 19 21  1  0
 21 22  1  0
 22 23  1  0
 23 24  1  0
 23 25  1  0
 23 26  1  0
 21 27  2  0
 21 28  2  0
 13 29  2  0
  1 30  1  0
 30 31  1  0
 31 32  1  0
 32 33  1  0
 33 34  1  0
 34 35  1  0
 33 36  1  0
 36 37  1  0
  6  1  2  0
 20 15  1  0
 35 30  1  0
 37 33  1  0
  4 38  1  0
  7 39  1  0
  9 40  1  0
  9 41  1  0
 10 42  1  0
 11 43  1  0
 11 44  1  0
 11 45  1  0
 12 46  1  0
 12 47  1  0
 12 48  1  0
 14 49  1  0
 16 50  1  0
 17 51  1  0
 18 52  1  0
 22 53  1  0
 24 54  1  0
 24 55  1  0
 24 56  1  0
 25 57  1  0
 25 58  1  0
 25 59  1  0
 26 60  1  0
 26 61  1  0
 26 62  1  0
 31 63  1  0
 31 64  1  0
 32 65  1  0
 32 66  1  0
 34 67  1  0
 34 68  1  0
 35 69  1  0
 35 70  1  0
 36 71  1  0
 36 72  1  0
 37 73  1  0
 37 74  1  0
M  END
$$$$
