agan9
     RDKit          3D

 62 66  0  0  0  0  0  0  0  0999 V2000
    0.9979   -1.4549   -1.5330 C   0  0  0  0  0  0  0  0  0  0  0  0
    2.1368   -1.5712   -2.3472 C   0  0  0  0  0  0  0  0  0  0  0  0
    3.1486   -0.6281   -2.2556 C   0  0  0  0  0  0  0  0  0  0  0  0
    3.0955    0.4338   -1.3573 C   0  0  0  0  0  0  0  0  0  0  0  0
    1.9586    0.5881   -0.5749 C   0  0  0  0  0  0  0  0  0  0  0  0
    0.9111   -0.3442   -0.6169 C   0  0  0  0  0  0  0  0  0  0  0  0
   -0.2200   -0.1931    0.2143 N   0  0  0  0  0  0  0  0  0  0  0  0
    0.0043   -0.1391    1.6767 C   0  0  0  0  0  0  0  0  0  0  0  0
    0.0979    1.2799    2.2484 C   0  0  0  0  0  0  0  0  0  0  0  0
   -0.9954    2.1757    1.7078 C   0  0  0  0  0  0  0  0  0  0  0  0
   -1.0932    2.1554    0.1977 C   0  0  0  0  0  0  0  0  0  0  0  0
   -1.2587    0.7225   -0.3134 C   0  0  0  0  0  0  0  0  0  0  0  0
   -1.2632    3.4814    2.4225 C   0  0  0  0  0  0  0  0  0  0  0  0
   -2.2596    2.3598    2.5198 C   0  0  0  0  0  0  0  0  0  0  0  0
    4.1486    1.4017   -1.4073 N   0  0  0  0  0  0  0  0  0  0  0  0
    4.6567    2.2518   -0.0469 S   0  0  0  0  0  0  0  0  0  0  0  0
    3.7946    3.7960   -0.2526 C   0  0  0  0  0  0  0  0  0  0  0  0
    4.1641    4.7475    0.8648 C   0  0  0  0  0  0  0  0  0  0  0  0
    3.4402    5.9637    0.6971 O   0  0  0  0  0  0  0  0  0  0  0  0
    4.1930    1.6012    1.1580 O   0  0  0  0  0  0  0  0  0  0  0  0
    6.0651    2.5094   -0.2637 O   0  0  0  0  0  0  0  0  0  0  0  0
    2.3208   -2.5557   -3.2289 N   0  0  0  0  0  0  0  0  0  0  0  0
    1.3569   -3.4741   -3.3130 C   0  0  0  0  0  0  0  0  0  0  0  0
    0.2308   -3.4944   -2.6041 N   0  0  0  0  0  0  0  0  0  0  0  0
    0.0469   -2.4987   -1.7154 C   0  0  0  0  0  0  0  0  0  0  0  0
   -1.1509   -2.4587   -0.9620 N   0  0  0  0  0  0  0  0  0  0  0  0
   -2.2727   -3.2974   -0.8780 C   0  0  0  0  0  0  0  0  0  0  0  0
   -2.5662   -4.3071   -1.7964 C   0  0  0  0  0  0  0  0  0  0  0  0
   -3.7265   -5.0792   -1.6774 C   0  0  0  0  0  0  0  0  0  0  0  0
   -4.6224   -4.8464   -0.6370 C   0  0  0  0  0  0  0  0  0  0  0  0
   -4.3626   -3.8411    0.2959 C   0  0  0  0  0  0  0  0  0  0  0  0
   -3.2009   -3.0658    0.1539 C   0  0  0  0  0  0  0  0  0  0  0  0
   -5.3398   -3.5504    1.3953 C   0  0  0  0  0  0  0  0  0  0  0  0
    4.0099   -0.7438   -2.9102 H   0  0  0  0  0  0  0  0  0  0  0  0
    1.8712    1.4448    0.0773 H   0  0  0  0  0  0  0  0  0  0  0  0
    0.8883   -0.7232    1.9613 H   0  0  0  0  0  0  0  0  0  0  0  0
   -0.8530   -0.6401    2.1445 H   0  0  0  0  0  0  0  0  0  0  0  0
    0.0511    1.2225    3.3431 H   0  0  0  0  0  0  0  0  0  0  0  0
    1.0686    1.7281    2.0150 H   0  0  0  0  0  0  0  0  0  0  0  0
   -1.9402    2.7595   -0.1494 H   0  0  0  0  0  0  0  0  0  0  0  0
   -0.1905    2.6105   -0.2251 H   0  0  0  0  0  0  0  0  0  0  0  0
   -1.2783    0.7122   -1.4103 H   0  0  0  0  0  0  0  0  0  0  0  0
   -2.2324    0.3395    0.0174 H   0  0  0  0  0  0  0  0  0  0  0  0
   -0.6819    3.7207    3.3066 H   0  0  0  0  0  0  0  0  0  0  0  0
   -1.5352    4.3517    1.8348 H   0  0  0  0  0  0  0  0  0  0  0  0
   -3.2042    2.4774    1.9996 H   0  0  0  0  0  0  0  0  0  0  0  0
   -2.3511    1.8470    3.4712 H   0  0  0  0  0  0  0  0  0  0  0  0
    4.9492    1.1745   -2.0009 H   0  0  0  0  0  0  0  0  0  0  0  0
    2.7181    3.6047   -0.2521 H   0  0  0  0  0  0  0  0  0  0  0  0
    4.0669    4.2174   -1.2255 H   0  0  0  0  0  0  0  0  0  0  0  0
    5.2345    4.9767    0.8526 H   0  0  0  0  0  0  0  0  0  0  0  0
    3.9098    4.3285    1.8438 H   0  0  0  0  0  0  0  0  0  0  0  0
    3.7175    6.5630    1.4132 H   0  0  0  0  0  0  0  0  0  0  0  0
    1.5031   -4.2782   -4.0255 H   0  0  0  0  0  0  0  0  0  0  0  0
   -1.0193   -1.8445   -0.1577 H   0  0  0  0  0  0  0  0  0  0  0  0
   -1.9039   -4.5091   -2.6314 H   0  0  0  0  0  0  0  0  0  0  0  0
   -3.9295   -5.8587   -2.4068 H   0  0  0  0  0  0  0  0  0  0  0  0
   -5.5234   -5.4504   -0.5635 H   0  0  0  0  0  0  0  0  0  0  0  0
   -3.0138   -2.2658    0.8671 H   0  0  0  0  0  0  0  0  0  0  0  0
   -5.8845   -4.4553    1.6845 H   0  0  0  0  0  0  0  0  0  0  0  0
   -6.0596   -2.7947    1.0662 H   0  0  0  0  0  0  0  0  0  0  0  0
   -4.8237   -3.1834    2.2888 H   0  0  0  0  0  0  0  0  0  0  0  0
  1  2  1  0
  2  3  2  0
  3  4  1  0
  4  5  2  0
  5  6  1  0
  6  7  1  0
  7  8  1  0
  8  9  1  0
  9 10  1  0
 10 11  1  0
 11 12  1  0
 10 13  1  0
 13 14  1  0
  4 15  1  0
 15 16  1  0
 16 17  1  0
 17 18  1  0
 18 19  1  0
 16 20  2  0
 16 21  2  0
  2 22  1  0
 22 23  2  0
 23 24  1  0
 24 25  2  0
 25 26  1  0
 26 27  1  0
 27 28  2  0
 28 29  1  0
 29 30  2  0
 30 31  1  0
 31 32  2  0
 31 33  1  0
  6  1  2  0
 12  7  1  0
 32 27  1  0
 25  1  1  0
 14 10  1  0
  3 34  1  0
  5 35  1  0
  8 36  1  0
  8 37  1  0
  9 38  1  0
  9 39  1  0
 11 40  1  0
 11 41  1  0
 12 42  1  0
 12 43  1  0
 13 44  1  0
 13 45  1  0
 14 46  1  0
 14 47  1  0
 15 48  1  0
 17 49  1  0
 17 50  1  0
 18 51  1  0
 18 52  1  0
 19 53  1  0
 23 54  1  0
 26 55  1  0
 28 56  1  0
 29 57  1  0
 30 58  1  0
 32 59  1  0
 33 60  1  0
 33 61  1  0
 33 62  1  0
M  END
$$$$
